Version 4
SHEET 1 1684 692
WIRE 576 -368 384 -368
WIRE 736 -368 576 -368
WIRE 1408 -368 1216 -368
WIRE 1568 -368 1408 -368
WIRE 576 -352 576 -368
WIRE 1408 -352 1408 -368
WIRE 256 -240 208 -240
WIRE 384 -240 384 -288
WIRE 384 -240 336 -240
WIRE 416 -240 384 -240
WIRE 576 -240 576 -288
WIRE 576 -240 496 -240
WIRE 640 -240 576 -240
WIRE 1088 -240 1024 -240
WIRE 1216 -240 1216 -288
WIRE 1216 -240 1168 -240
WIRE 1248 -240 1216 -240
WIRE 1408 -240 1408 -288
WIRE 1408 -240 1328 -240
WIRE 1472 -240 1408 -240
WIRE -240 -224 -496 -224
WIRE 736 -224 736 -368
WIRE 736 -224 704 -224
WIRE 1024 -224 1024 -240
WIRE 1024 -224 736 -224
WIRE 1568 -224 1568 -368
WIRE 1568 -224 1536 -224
WIRE 1600 -224 1568 -224
WIRE 640 -208 576 -208
WIRE 1472 -208 1408 -208
WIRE -352 -176 -432 -176
WIRE 384 -176 384 -240
WIRE 576 -176 576 -208
WIRE 1216 -176 1216 -240
WIRE 1408 -176 1408 -208
WIRE -432 -160 -432 -176
WIRE 384 -80 384 -112
WIRE 1216 -80 1216 -112
WIRE -432 -48 -432 -80
WIRE -352 -48 -432 -48
WIRE 1600 -48 1600 -224
WIRE 1600 -48 208 -48
WIRE -432 -16 -432 -48
WIRE -352 -16 -352 -48
WIRE 576 0 384 0
WIRE 736 0 576 0
WIRE 576 16 576 0
WIRE -432 96 -432 64
WIRE -352 96 -432 96
WIRE 208 128 208 -48
WIRE 256 128 208 128
WIRE 384 128 384 80
WIRE 384 128 336 128
WIRE 416 128 384 128
WIRE 576 128 576 80
WIRE 576 128 496 128
WIRE 640 128 576 128
WIRE 736 144 736 0
WIRE 736 144 704 144
WIRE 1088 144 736 144
WIRE 640 160 576 160
WIRE 384 192 384 128
WIRE 576 192 576 160
WIRE -496 208 -496 -224
WIRE -240 208 -240 -224
WIRE -240 208 -496 208
WIRE -240 224 -496 224
WIRE 384 288 384 256
WIRE -400 416 -400 400
WIRE -496 448 -496 224
WIRE -240 448 -240 224
WIRE -240 448 -496 448
WIRE -160 464 -496 464
WIRE -496 576 -496 464
WIRE -160 576 -160 464
WIRE -160 576 -496 576
FLAG -400 416 0
FLAG -352 -16 0
FLAG -352 -176 +Vcc
IOPIN -352 -176 Out
FLAG -352 96 -Vcc
IOPIN -352 96 Out
FLAG -400 320 ve
IOPIN -400 320 Out
FLAG 672 -256 +Vcc
IOPIN 672 -256 In
FLAG 672 -192 -Vcc
IOPIN 672 -192 In
FLAG 208 -240 ve
IOPIN 208 -240 In
FLAG 576 -176 0
FLAG 384 -80 0
FLAG 672 112 +Vcc
IOPIN 672 112 In
FLAG 672 176 -Vcc
IOPIN 672 176 In
FLAG 576 192 0
FLAG 384 288 0
FLAG 1504 -256 +Vcc
IOPIN 1504 -256 In
FLAG 1504 -192 -Vcc
IOPIN 1504 -192 In
FLAG 1408 -176 0
FLAG 1216 -80 0
FLAG 1088 144 VS
IOPIN 1088 144 Out
SYMBOL voltage -400 304 R0
WINDOW 123 23 95 Left 0
WINDOW 39 0 0 Left 0
WINDOW 3 -5 162 Left 0
WINDOW 0 26 65 Left 0
SYMATTR Value2 AC 1 0
SYMATTR Value ""
SYMATTR InstName V1
SYMBOL voltage -432 -176 R0
SYMATTR InstName V2
SYMATTR Value 15
SYMBOL voltage -432 -32 R0
SYMATTR InstName V3
SYMATTR Value 15
SYMBOL UniversalOpamp2 672 -224 R0
SYMATTR InstName U1
SYMBOL res 368 -384 R0
SYMATTR InstName R1
SYMATTR Value 1000
SYMBOL res 352 -256 R90
WINDOW 0 0 56 VBottom 0
WINDOW 3 32 56 VTop 0
SYMATTR InstName R2
SYMATTR Value 1000
SYMBOL cap 592 -288 R180
WINDOW 0 24 64 Left 0
WINDOW 3 24 8 Left 0
SYMATTR InstName C1
SYMATTR Value 5.492310719252056e-09
SYMBOL cap 400 -112 R180
WINDOW 0 24 64 Left 0
WINDOW 3 24 8 Left 0
SYMATTR InstName C2
SYMATTR Value 2.5621978319004757e-07
SYMBOL res 400 -224 R270
WINDOW 0 32 56 VTop 0
WINDOW 3 0 56 VBottom 0
SYMATTR InstName R3
SYMATTR Value 2000
SYMBOL UniversalOpamp2 672 144 R0
SYMATTR InstName U2
SYMBOL res 368 -16 R0
SYMATTR InstName R4
SYMATTR Value 1000
SYMBOL res 352 112 R90
WINDOW 0 0 56 VBottom 0
WINDOW 3 32 56 VTop 0
SYMATTR InstName R5
SYMATTR Value 1000
SYMBOL cap 592 80 R180
WINDOW 0 24 64 Left 0
WINDOW 3 24 8 Left 0
SYMATTR InstName C3
SYMATTR Value 2.0497582655203822e-08
SYMBOL cap 400 256 R180
WINDOW 0 24 64 Left 0
WINDOW 3 24 8 Left 0
SYMATTR InstName C4
SYMATTR Value 6.865388399065064e-08
SYMBOL res 400 144 R270
WINDOW 0 32 56 VTop 0
WINDOW 3 0 56 VBottom 0
SYMATTR InstName R6
SYMATTR Value 2000
SYMBOL UniversalOpamp2 1504 -224 R0
SYMATTR InstName U4
SYMBOL res 1200 -384 R0
SYMATTR InstName R10
SYMATTR Value 1000
SYMBOL res 1184 -256 R90
WINDOW 0 0 56 VBottom 0
WINDOW 3 32 56 VTop 0
SYMATTR InstName R11
SYMATTR Value 1000
SYMBOL cap 1424 -288 R180
WINDOW 0 24 64 Left 0
WINDOW 3 24 8 Left 0
SYMATTR InstName C7
SYMATTR Value 1.500527193595177e-08
SYMBOL cap 1232 -112 R180
WINDOW 0 24 64 Left 0
WINDOW 3 24 8 Left 0
SYMATTR InstName C8
SYMATTR Value 9.378294959969853e-08
SYMBOL res 1232 -224 R270
WINDOW 0 32 56 VTop 0
WINDOW 3 0 56 VBottom 0
SYMATTR InstName R12
SYMATTR Value 2000
TEXT -488 184 Left 0 ;alimentation symétrique AOP
TEXT -464 536 Left 0 !.ac dec 1000 10 1meg
TEXT -480 248 Left 0 ;Source d'entrée
TEXT -480 488 Left 0 ;Commande de simulation
