Version 4
SHEET 1 880 680
WIRE 368 16 192 16
WIRE 368 48 368 16
WIRE 192 112 192 16
WIRE 192 112 144 112
WIRE 368 160 368 128
WIRE 368 256 368 224
FLAG 368 256 0
FLAG 64 208 2
IOPIN 64 208 Out
FLAG 64 112 3
IOPIN 64 112 Out
SYMBOL res 160 96 R90
WINDOW 0 0 56 VBottom 2
WINDOW 3 32 56 VTop 2
SYMATTR InstName Pro3
SYMATTR Value 470
SYMBOL res 160 192 R90
WINDOW 0 0 56 VBottom 2
WINDOW 3 32 56 VTop 2
SYMATTR InstName Pro2
SYMATTR Value 470
SYMBOL res 384 144 R180
WINDOW 0 36 76 Left 2
WINDOW 3 36 40 Left 2
SYMATTR InstName ProLR
SYMATTR Value 100
SYMBOL LED 352 160 R0
SYMATTR InstName LR
SYMATTR Value QTLP690C
