Version 4
SHEET 1 880 680
WIRE 80 -448 -352 -448
WIRE 832 -448 80 -448
WIRE -352 -368 -352 -448
WIRE 80 -368 80 -448
WIRE 80 -368 -352 -368
WIRE -352 -192 -352 -368
WIRE 832 -192 832 -448
WIRE 832 -192 -352 -192
WIRE -96 -160 -352 -160
WIRE 832 -160 -96 -160
WIRE -352 -80 -352 -160
WIRE -96 -80 -96 -160
WIRE -96 -80 -352 -80
WIRE 224 -64 80 -64
WIRE 352 -64 224 -64
WIRE 224 -32 224 -64
WIRE 352 -32 352 -64
WIRE 352 96 352 48
WIRE 512 96 352 96
WIRE 720 96 592 96
WIRE 352 128 352 96
WIRE 224 176 224 48
WIRE 288 176 224 176
WIRE 224 224 224 176
WIRE -272 304 -272 240
WIRE 352 320 352 224
WIRE 224 352 224 304
WIRE -352 448 -352 -80
WIRE 832 448 832 -160
WIRE 832 448 -352 448
FLAG 352 320 0
FLAG 224 352 A5
IOPIN 224 352 In
FLAG 720 96 A3
IOPIN 720 96 In
FLAG -272 304 0
FLAG 80 -64 +5V
FLAG -272 160 +5V
SYMBOL npn 288 128 R0
SYMATTR InstName Q1
SYMATTR Value BC547C
SYMBOL res 336 -48 R0
SYMATTR InstName R1
SYMATTR Value 2500
SYMBOL res 208 -48 R0
SYMATTR InstName R2
SYMATTR Value 2Meg
SYMBOL res 608 80 R90
WINDOW 0 0 56 VBottom 2
WINDOW 3 32 56 VTop 2
SYMATTR InstName PROA3
SYMATTR Value 470
SYMBOL res 208 208 R0
SYMATTR InstName PROA5
SYMATTR Value 470
SYMBOL voltage -272 144 R0
WINDOW 123 24 124 Left 2
WINDOW 39 0 0 Left 0
SYMATTR Value2 AC 5
SYMATTR InstName Alimentation_Arduino_5V
SYMATTR Value 5
TEXT -272 -288 Left 2 !.tran 0 1 0
TEXT -320 -120 Left 3 ;CIRCUITERIE
TEXT -328 -408 Left 3 ;ORDRES DE SIMULATION
TEXT -1512 -344 Left 3 ;Pour plot Beta il faut créer un tracé avec "Ic(Q1)/Ib(Q1)"
