Version 4
SHEET 1 880 680
WIRE 224 -16 80 -16
WIRE 352 -16 224 -16
WIRE 224 0 224 -16
WIRE 352 0 352 -16
WIRE 80 80 80 -16
WIRE 352 96 352 80
WIRE 400 96 352 96
WIRE 352 112 352 96
WIRE 224 160 224 80
WIRE 288 160 224 160
WIRE 224 192 224 160
WIRE 80 320 80 160
WIRE 352 320 352 208
FLAG 352 320 0
FLAG 80 320 0
FLAG 224 272 A5
FLAG 480 96 A3
SYMBOL npn 288 112 R0
SYMATTR InstName Q1
SYMATTR Value BC547C
SYMBOL res 336 -16 R0
SYMATTR InstName Rc
SYMATTR Value 2.5k
SYMBOL res 208 -16 R0
SYMATTR InstName Rb
SYMATTR Value 2000k
SYMBOL voltage 80 64 R0
WINDOW 123 24 124 Left 2
WINDOW 39 0 0 Left 0
SYMATTR Value2 AC 5
SYMATTR InstName USB_5V
SYMATTR Value 5
SYMBOL res 496 80 R90
WINDOW 0 0 56 VBottom 2
WINDOW 3 32 56 VTop 2
SYMATTR InstName R1
SYMATTR Value 470
SYMBOL res 208 176 R0
SYMATTR InstName R2
SYMATTR Value 470
TEXT 32 376 Left 2 !.tran 0 1 0
TEXT 32 408 Left 2 !.step dec param Rc 1 1000 1
TEXT 32 440 Left 2 !.step dec param Rb 1 1000 1
