Version 4
SHEET 1 880 680
WIRE 464 -80 416 -80
WIRE 496 -80 464 -80
WIRE 464 16 464 -80
WIRE 464 112 464 96
WIRE 464 112 128 112
WIRE -176 144 -176 112
FLAG 576 -80 0
FLAG -176 144 0
FLAG -176 32 5V
FLAG 336 -80 5V
FLAG 48 112 A0
IOPIN 48 112 In
SYMBOL res 144 96 R90
WINDOW 0 0 56 VBottom 2
WINDOW 3 32 56 VTop 2
SYMATTR InstName ProA0
SYMATTR Value 470
SYMBOL res 432 -96 R90
WINDOW 0 0 56 VBottom 2
WINDOW 3 32 56 VTop 2
SYMATTR InstName P1A
SYMATTR Value {x1*P1}
SYMBOL res 592 -96 R90
WINDOW 0 0 56 VBottom 2
WINDOW 3 32 56 VTop 2
SYMATTR InstName P1B
SYMATTR Value {(1-x1)*P1}
SYMBOL res 480 112 R180
WINDOW 0 36 76 Left 2
WINDOW 3 36 40 Left 2
SYMATTR InstName ProP1
SYMATTR Value 220
SYMBOL voltage -176 16 R0
SYMATTR InstName V1
SYMATTR Value 5v
TEXT -184 -240 Left 2 !.param P1=50k P2=50k
TEXT -184 -192 Left 2 !.param x1=0.99999 x2=0.5
TEXT -210 188 Left 2 !.op
