Version 4
SHEET 1 2528 1028
WIRE -176 -512 -576 -512
WIRE 736 -512 -176 -512
WIRE 1104 -512 928 -512
WIRE 2144 -512 1104 -512
WIRE -576 -448 -576 -512
WIRE -176 -448 -176 -512
WIRE -176 -448 -576 -448
WIRE 928 -448 928 -512
WIRE 1104 -448 1104 -512
WIRE 1104 -448 928 -448
WIRE -576 -304 -576 -448
WIRE 736 -304 736 -512
WIRE 736 -304 -576 -304
WIRE 1088 -304 1056 -352
WIRE 1088 -304 1120 -352
WIRE -320 -256 -576 -256
WIRE 736 -256 -320 -256
WIRE -576 -176 -576 -256
WIRE -320 -176 -320 -256
WIRE -320 -176 -576 -176
WIRE -320 -80 -336 -80
WIRE -192 -80 -240 -80
WIRE -144 -80 -192 -80
WIRE -32 -80 -64 -80
WIRE 1088 -64 1056 -112
WIRE -192 -16 -192 -80
WIRE -192 96 -192 64
WIRE 1088 176 1056 128
WIRE -448 416 -448 352
WIRE -32 432 -160 432
WIRE 160 432 0 432
WIRE 352 432 352 352
WIRE 352 432 240 432
WIRE 416 432 352 432
WIRE 0 464 -32 432
WIRE 32 464 0 464
WIRE -448 512 -448 480
WIRE -32 528 -160 528
WIRE 160 528 0 528
WIRE 304 528 240 528
WIRE 416 528 304 528
WIRE 0 560 -32 528
WIRE 32 560 0 560
WIRE 1088 592 1056 544
WIRE 1088 592 1120 544
WIRE 1776 592 1744 544
WIRE 1776 592 1808 544
WIRE -448 624 -448 592
WIRE 304 672 304 528
WIRE -576 992 -576 -176
WIRE 736 992 736 -256
WIRE 736 992 -576 992
WIRE 928 992 928 -448
WIRE 2144 992 2144 -512
WIRE 2144 992 928 992
FLAG 304 128 0
FLAG 304 48 +5V
FLAG -32 -80 0
FLAG -336 -80 +5V
FLAG -160 528 +5V
FLAG -160 432 +5V
FLAG 304 752 2
IOPIN 304 752 In
FLAG 352 272 3
IOPIN 352 272 In
FLAG -192 96 A0
IOPIN -192 96 In
FLAG -448 624 0
FLAG -448 352 10
IOPIN -448 352 Out
FLAG 1088 -224 0
FLAG 1120 -352 V00
FLAG 1056 -352 V01
FLAG 1088 16 0
FLAG 1056 -112 V10
FLAG 1088 256 0
FLAG 1056 128 V11
FLAG 1088 672 0
FLAG 1120 544 V11L
FLAG 1056 544 V10L
FLAG 1776 672 0
FLAG 1808 544 V01L
FLAG 1744 544 V00L
FLAG 496 528 0
FLAG 496 432 0
FLAG -224 848 SORTIE
IOPIN -224 848 Out
FLAG -304 848 11
IOPIN -304 848 Out
SYMBOL voltage 304 32 R0
SYMATTR InstName Alimentation_Arduino_5V
SYMATTR Value 5
SYMBOL res -224 -96 R90
WINDOW 0 0 56 VBottom 2
WINDOW 3 32 56 VTop 2
SYMATTR InstName P1A
SYMATTR Value {x1*P1}
SYMBOL res -48 -96 R90
WINDOW 0 0 56 VBottom 2
WINDOW 3 32 56 VTop 2
SYMATTR InstName P1B
SYMATTR Value {(1-x1)*P1}
SYMBOL res -176 80 R180
WINDOW 0 36 76 Left 2
WINDOW 3 36 40 Left 2
SYMATTR InstName ProP1
SYMATTR Value 220
SYMBOL LED -464 416 R0
SYMATTR InstName D1
SYMATTR Value QTLP690C
SYMATTR Description Diode
SYMATTR Type diode
SYMBOL res -464 496 R0
SYMATTR InstName ProLR
SYMATTR Value 100
SYMBOL voltage 1088 -320 R0
WINDOW 123 0 0 Left 0
WINDOW 39 0 0 Left 0
SYMATTR InstName SORTIE_pour_v1=0
SYMATTR Value PULSE(0 5 0 1n 1n 0.025m 0.05m)
SYMBOL voltage 1088 -80 R0
WINDOW 123 0 0 Left 0
WINDOW 39 0 0 Left 0
SYMATTR InstName SORTIE_pour_v1=1_v2=0
SYMATTR Value PULSE(0 5 0 1n 1n {0.25*(1/(100+x1*400))} {1/(100+x1*400)})
SYMBOL voltage 1088 160 R0
WINDOW 123 0 0 Left 0
WINDOW 39 0 0 Left 0
SYMATTR InstName SORTIE_pour_v1=1_v2=1
SYMATTR Value PULSE(0 5 0 1n 1n {0.75*(1/(100+x1*400))} {1/(100+x1*400)})
SYMBOL voltage 1088 576 R0
WINDOW 123 0 0 Left 0
WINDOW 39 0 0 Left 0
SYMATTR InstName LED_pour_v=1
SYMATTR Value PULSE(0 5 0 1n 1n 0.5 1)
SYMBOL voltage 1776 576 R0
WINDOW 123 0 0 Left 0
WINDOW 39 0 0 Left 0
SYMATTR InstName LED_pour_v1=0
SYMATTR Value 5
SYMBOL res 368 368 R180
WINDOW 0 36 76 Left 2
WINDOW 3 36 40 Left 2
SYMATTR InstName PRO3
SYMATTR Value 470
SYMBOL res 320 768 R180
WINDOW 0 36 76 Left 2
WINDOW 3 36 40 Left 2
SYMATTR InstName PRO2
SYMATTR Value 470
SYMBOL res 256 512 R90
WINDOW 0 0 56 VBottom 2
WINDOW 3 32 56 VTop 2
SYMATTR InstName R3
SYMATTR Value 1,1k
SYMBOL res 512 512 R90
WINDOW 0 0 56 VBottom 2
WINDOW 3 32 56 VTop 2
SYMATTR InstName R4
SYMATTR Value 3,7meg
SYMBOL res 512 416 R90
WINDOW 0 0 56 VBottom 2
WINDOW 3 32 56 VTop 2
SYMATTR InstName R5
SYMATTR Value 3,7meg
SYMBOL res 256 416 R90
WINDOW 0 0 56 VBottom 2
WINDOW 3 32 56 VTop 2
SYMATTR InstName R6
SYMATTR Value 1,1k
SYMBOL res -208 832 R90
WINDOW 0 0 56 VBottom 2
WINDOW 3 32 56 VTop 2
SYMATTR InstName PRO3
SYMATTR Value 470
TEXT -120 -400 Left 2 !.param P1=50k
TEXT -120 -472 Left 2 !.param x1=0.6
TEXT -32 512 Left 2 ;I1
TEXT -32 408 Left 2 ;I2
TEXT -496 -392 Left 2 !.tran 100m
TEXT 944 -480 Left 3 ;SOURCES
TEXT 1128 -488 Left 2 ;Les différentes sources correspondent à un état du système V{v1}{v2}.Quand le suffix "L" est présent on parle de la led
TEXT -560 -216 Left 3 ;CIRCUITERIE
TEXT -560 -488 Left 3 ;ORDRES DE SIMULATION
TEXT 16 424 Left 1 ;pos1
TEXT 8 520 Left 1 ;pos1
TEXT 8 552 Left 1 ;pos2
TEXT 16 456 Left 1 ;pos2
