Version 4
SHEET 1 880 680
WIRE 176 128 176 80
WIRE 384 128 176 128
WIRE 176 192 176 128
FLAG 176 272 0
FLAG -288 112 0
FLAG -288 32 VCC
IOPIN -288 32 Out
FLAG 176 0 VCC
IOPIN 176 0 In
FLAG 384 128 Va
SYMBOL res 160 176 R0
SYMATTR InstName R1
SYMATTR Value 50Meg
SYMBOL res 160 -16 R0
SYMATTR InstName R2
SYMATTR Value 100
SYMBOL voltage -288 16 R0
SYMATTR InstName V1
SYMATTR Value 5
TEXT -360 296 Left 2 !.op
