Version 4
SHEET 1 2148 1016
WIRE 2144 -512 928 -512
WIRE 1088 -304 1056 -352
WIRE 1088 -304 1120 -352
WIRE 1744 -304 1712 -352
WIRE 1744 -304 1776 -352
WIRE 112 -144 96 -144
WIRE 240 -144 192 -144
WIRE 288 -144 240 -144
WIRE 400 -144 368 -144
WIRE 240 -80 240 -144
WIRE 1088 -64 1056 -112
WIRE 640 -32 640 -96
WIRE 240 32 240 0
WIRE 640 64 640 32
WIRE 1088 160 1056 112
WIRE 640 176 640 144
WIRE 256 240 128 240
WIRE 384 240 288 240
WIRE 288 272 256 240
WIRE 256 336 128 336
WIRE 384 336 288 336
WIRE 288 368 256 336
WIRE 1088 368 1056 320
WIRE 1088 368 1120 320
WIRE 1104 640 1072 592
WIRE 928 992 928 -512
WIRE 2144 992 2144 -512
WIRE 2144 992 928 992
FLAG -64 224 0
FLAG -64 144 +5V
FLAG 400 -144 0
FLAG 96 -144 +5V
FLAG 128 336 +5V
FLAG 128 240 +5V
FLAG 464 336 2
IOPIN 464 336 In
FLAG 464 240 3
IOPIN 464 240 In
FLAG 240 32 A0
IOPIN 240 32 In
FLAG 640 176 0
FLAG 640 -96 10
IOPIN 640 -96 Out
FLAG 1088 -224 0
FLAG 1120 -352 V00
FLAG 1056 -352 V01
FLAG 1088 16 0
FLAG 1056 -112 V10
FLAG 1088 240 0
FLAG 1056 112 V11
FLAG 1088 448 0
FLAG 1120 320 V11L
FLAG 1056 320 V10L
FLAG 1744 -224 0
FLAG 1776 -352 V01L
FLAG 1712 -352 V00L
FLAG 1104 720 0
FLAG 1072 592 VL
SYMBOL voltage -64 128 R0
SYMATTR InstName +5V
SYMATTR Value 5
SYMBOL res 208 -160 R90
WINDOW 0 0 56 VBottom 2
WINDOW 3 32 56 VTop 2
SYMATTR InstName P1A
SYMATTR Value {x1*P1}
SYMBOL res 384 -160 R90
WINDOW 0 0 56 VBottom 2
WINDOW 3 32 56 VTop 2
SYMATTR InstName P1B
SYMATTR Value {(1-x1)*P1}
SYMBOL res 256 16 R180
WINDOW 0 36 76 Left 2
WINDOW 3 36 40 Left 2
SYMATTR InstName ProP1
SYMATTR Value 220
SYMBOL LED 624 -32 R0
SYMATTR InstName D1
SYMATTR Value QTLP690C
SYMATTR Description Diode
SYMATTR Type diode
SYMBOL res 624 48 R0
SYMATTR InstName ProLR
SYMATTR Value 100
SYMBOL voltage 1088 -320 R0
WINDOW 123 0 0 Left 0
WINDOW 39 0 0 Left 0
SYMATTR InstName V1
SYMATTR Value PULSE(0 5 0 1n 1n 0.025m 0.05m)
SYMBOL voltage 1088 -80 R0
WINDOW 123 0 0 Left 0
WINDOW 39 0 0 Left 0
SYMATTR InstName V2
SYMATTR Value PULSE(0 5 0 1n 1n {0.25*(1/(100+x1*400))} {1/(100+x1*400)})
SYMBOL voltage 1088 144 R0
WINDOW 123 0 0 Left 0
WINDOW 39 0 0 Left 0
SYMATTR InstName V3
SYMATTR Value PULSE(0 5 0 1n 1n {0.75*(1/(100+x1*400))} {1/(100+x1*400)})
SYMBOL voltage 1088 352 R0
WINDOW 123 0 0 Left 0
WINDOW 39 0 0 Left 0
SYMATTR InstName V4
SYMATTR Value PULSE(0 5 0 1n 1n 0.5 1)
SYMBOL voltage 1744 -320 R0
WINDOW 123 0 0 Left 0
WINDOW 39 0 0 Left 0
SYMATTR InstName V5
SYMATTR Value 5
SYMBOL voltage 1104 624 R0
WINDOW 123 0 0 Left 0
WINDOW 39 0 0 Left 0
SYMATTR InstName V6
SYMATTR Value PULSE(0 5 0 1n 1n {0.25*(1/(100+x1*400))} {1/(100+x1*400)})
SYMBOL res 480 224 R90
WINDOW 0 0 56 VBottom 2
WINDOW 3 32 56 VTop 2
SYMATTR InstName R1
SYMATTR Value 470
SYMBOL res 480 320 R90
WINDOW 0 0 56 VBottom 2
WINDOW 3 32 56 VTop 2
SYMATTR InstName R2
SYMATTR Value 470
TEXT -248 -184 Left 2 !.param P1=50k
TEXT -248 -152 Left 2 !.param x1=0.6
TEXT 264 320 Left 2 ;I1
TEXT 256 216 Left 2 ;I2
TEXT -248 -112 Left 2 !.param pos1=0 pos2=0
TEXT -250 998 Left 2 !.tran 100m
